
            <routes>
                <vType id="passenger" accel="0.8" decel="4.5" sigma="0.5" length="5.0" minGap="2.5" maxSpeed="16.67" guiShape="passenger" color="255,255,0"/>
                    <route id="Eastbound.L"  edges="2_0 0_3" />
                    <route id="Eastbound.T"  edges="2_0 0_1" />
                    <route id="Eastbound.TR" edges="2_0 0_4" />
                    <route id="Westbound.L"  edges="1_0 0_4" />
                    <route id="Westbound.T"  edges="1_0 0_2" />
                    <route id="Westbound.TR" edges="1_0 0_3" />
                    <route id="Northbound.L" edges="4_0 0_2" />
                    <route id="Northbound.T" edges="4_0 0_3" />
                    <route id="Northbound.TR" edges="4_0 0_1" />
                    <route id="Southbound.L" edges="3_0 0_1" />
                    <route id="Southbound.T" edges="3_0 0_4" />
                    <route id="Southbound.TR" edges="3_0 0_2" />
            

                            <vehicle id="Southbound.TR_0" route="Southbound.TR" depart="66.0" type="passenger" departSpeed="10" />
                            

                        <vehicle id="Westbound.L_1" route="Westbound.L" depart="66.0" type="passenger" departSpeed="10" />
                        

                            <vehicle id="Northbound.TR_2" route="Northbound.TR" depart="78.0" type="passenger" departSpeed="10" />
                            

                            <vehicle id="Northbound.T_3" route="Northbound.T" depart="87.0" type="passenger" departSpeed="10" />
                            

                            <vehicle id="Northbound.TR_4" route="Northbound.TR" depart="89.0" type="passenger" departSpeed="10" />
                            

                            <vehicle id="Northbound.T_5" route="Northbound.T" depart="119.0" type="passenger" departSpeed="10" />
                            

                            <vehicle id="Northbound.TR_6" route="Northbound.TR" depart="121.0" type="passenger" departSpeed="10" />
                            

                            <vehicle id="Southbound.T_7" route="Southbound.T" depart="123.0" type="passenger" departSpeed="10" />
                            

                            <vehicle id="Northbound.TR_8" route="Northbound.TR" depart="123.0" type="passenger" departSpeed="10" />
                            

                            <vehicle id="Northbound.T_9" route="Northbound.T" depart="124.0" type="passenger" departSpeed="10" />
                            

                            <vehicle id="Eastbound.T_10" route="Eastbound.T" depart="132.0" type="passenger" departSpeed="10" />
                            

                            <vehicle id="Southbound.TR_11" route="Southbound.TR" depart="142.0" type="passenger" departSpeed="10" />
                            

                        <vehicle id="Westbound.L_12" route="Westbound.L" depart="145.0" type="passenger" departSpeed="10" />
                        

                            <vehicle id="Westbound.TR_13" route="Westbound.TR" depart="146.0" type="passenger" departSpeed="10" />
                            

                            <vehicle id="Eastbound.T_14" route="Eastbound.T" depart="170.0" type="passenger" departSpeed="10" />
                            

                            <vehicle id="Westbound.T_15" route="Westbound.T" depart="185.0" type="passenger" departSpeed="10" />
                            

                            <vehicle id="Eastbound.T_16" route="Eastbound.T" depart="186.0" type="passenger" departSpeed="10" />
                            

                            <vehicle id="Northbound.TR_17" route="Northbound.TR" depart="188.0" type="passenger" departSpeed="10" />
                            

                            <vehicle id="Northbound.T_18" route="Northbound.T" depart="189.0" type="passenger" departSpeed="10" />
                            

                            <vehicle id="Northbound.TR_19" route="Northbound.TR" depart="189.0" type="passenger" departSpeed="10" />
                            

                            <vehicle id="Northbound.T_20" route="Northbound.T" depart="194.0" type="passenger" departSpeed="10" />
                            

                            <vehicle id="Westbound.TR_21" route="Westbound.TR" depart="202.0" type="passenger" departSpeed="10" />
                            

                            <vehicle id="Eastbound.T_22" route="Eastbound.T" depart="203.0" type="passenger" departSpeed="10" />
                            

                            <vehicle id="Northbound.TR_23" route="Northbound.TR" depart="207.0" type="passenger" departSpeed="10" />
                            

                            <vehicle id="Northbound.T_24" route="Northbound.T" depart="212.0" type="passenger" departSpeed="10" />
                            

                            <vehicle id="Southbound.T_25" route="Southbound.T" depart="212.0" type="passenger" departSpeed="10" />
                            

                            <vehicle id="Eastbound.TR_26" route="Eastbound.TR" depart="215.0" type="passenger" departSpeed="10" />
                            

                            <vehicle id="Northbound.T_27" route="Northbound.T" depart="219.0" type="passenger" departSpeed="10" />
                            

                            <vehicle id="Eastbound.TR_28" route="Eastbound.TR" depart="219.0" type="passenger" departSpeed="10" />
                            

                            <vehicle id="Southbound.T_29" route="Southbound.T" depart="222.0" type="passenger" departSpeed="10" />
                            

                            <vehicle id="Northbound.L_30" route="Northbound.L" depart="237.0" type="passenger" departSpeed="10" />
                            

                            <vehicle id="Westbound.T_31" route="Westbound.T" depart="243.0" type="passenger" departSpeed="10" />
                            

                            <vehicle id="Westbound.T_32" route="Westbound.T" depart="243.0" type="passenger" departSpeed="10" />
                            

                            <vehicle id="Northbound.TR_33" route="Northbound.TR" depart="247.0" type="passenger" departSpeed="10" />
                            

                            <vehicle id="Southbound.T_34" route="Southbound.T" depart="248.0" type="passenger" departSpeed="10" />
                            

                            <vehicle id="Northbound.TR_35" route="Northbound.TR" depart="250.0" type="passenger" departSpeed="10" />
                            

                        <vehicle id="Eastbound.L_36" route="Eastbound.L" depart="265.0" type="passenger" departSpeed="10" />
                        

                            <vehicle id="Westbound.T_37" route="Westbound.T" depart="267.0" type="passenger" departSpeed="10" />
                            

                            <vehicle id="Southbound.T_38" route="Southbound.T" depart="270.0" type="passenger" departSpeed="10" />
                            

                            <vehicle id="Northbound.T_39" route="Northbound.T" depart="270.0" type="passenger" departSpeed="10" />
                            

                            <vehicle id="Northbound.TR_40" route="Northbound.TR" depart="273.0" type="passenger" departSpeed="10" />
                            

                            <vehicle id="Eastbound.T_41" route="Eastbound.T" depart="277.0" type="passenger" departSpeed="10" />
                            

                            <vehicle id="Northbound.TR_42" route="Northbound.TR" depart="279.0" type="passenger" departSpeed="10" />
                            

                            <vehicle id="Southbound.TR_43" route="Southbound.TR" depart="281.0" type="passenger" departSpeed="10" />
                            

                            <vehicle id="Westbound.TR_44" route="Westbound.TR" depart="289.0" type="passenger" departSpeed="10" />
                            

                            <vehicle id="Eastbound.TR_45" route="Eastbound.TR" depart="290.0" type="passenger" departSpeed="10" />
                            

                            <vehicle id="Northbound.T_46" route="Northbound.T" depart="292.0" type="passenger" departSpeed="10" />
                            

                            <vehicle id="Eastbound.TR_47" route="Eastbound.TR" depart="294.0" type="passenger" departSpeed="10" />
                            

                            <vehicle id="Northbound.T_48" route="Northbound.T" depart="296.0" type="passenger" departSpeed="10" />
                            

                            <vehicle id="Northbound.T_49" route="Northbound.T" depart="302.0" type="passenger" departSpeed="10" />
                            

                            <vehicle id="Westbound.TR_50" route="Westbound.TR" depart="303.0" type="passenger" departSpeed="10" />
                            

                            <vehicle id="Southbound.TR_51" route="Southbound.TR" depart="305.0" type="passenger" departSpeed="10" />
                            

                            <vehicle id="Westbound.T_52" route="Westbound.T" depart="308.0" type="passenger" departSpeed="10" />
                            

                            <vehicle id="Eastbound.TR_53" route="Eastbound.TR" depart="310.0" type="passenger" departSpeed="10" />
                            

                            <vehicle id="Northbound.TR_54" route="Northbound.TR" depart="313.0" type="passenger" departSpeed="10" />
                            

                            <vehicle id="Southbound.TR_55" route="Southbound.TR" depart="318.0" type="passenger" departSpeed="10" />
                            

                            <vehicle id="Southbound.TR_56" route="Southbound.TR" depart="318.0" type="passenger" departSpeed="10" />
                            

                            <vehicle id="Southbound.T_57" route="Southbound.T" depart="322.0" type="passenger" departSpeed="10" />
                            

                            <vehicle id="Southbound.TR_58" route="Southbound.TR" depart="322.0" type="passenger" departSpeed="10" />
                            

                            <vehicle id="Westbound.T_59" route="Westbound.T" depart="330.0" type="passenger" departSpeed="10" />
                            

                            <vehicle id="Northbound.TR_60" route="Northbound.TR" depart="339.0" type="passenger" departSpeed="10" />
                            

                            <vehicle id="Southbound.T_61" route="Southbound.T" depart="341.0" type="passenger" departSpeed="10" />
                            

                            <vehicle id="Westbound.TR_62" route="Westbound.TR" depart="342.0" type="passenger" departSpeed="10" />
                            

                            <vehicle id="Southbound.TR_63" route="Southbound.TR" depart="342.0" type="passenger" departSpeed="10" />
                            

                            <vehicle id="Northbound.TR_64" route="Northbound.TR" depart="344.0" type="passenger" departSpeed="10" />
                            

                            <vehicle id="Northbound.TR_65" route="Northbound.TR" depart="344.0" type="passenger" departSpeed="10" />
                            

                            <vehicle id="Eastbound.TR_66" route="Eastbound.TR" depart="351.0" type="passenger" departSpeed="10" />
                            

                            <vehicle id="Westbound.TR_67" route="Westbound.TR" depart="352.0" type="passenger" departSpeed="10" />
                            

                            <vehicle id="Southbound.T_68" route="Southbound.T" depart="353.0" type="passenger" departSpeed="10" />
                            

                            <vehicle id="Northbound.T_69" route="Northbound.T" depart="354.0" type="passenger" departSpeed="10" />
                            

                            <vehicle id="Eastbound.T_70" route="Eastbound.T" depart="355.0" type="passenger" departSpeed="10" />
                            

                            <vehicle id="Southbound.T_71" route="Southbound.T" depart="356.0" type="passenger" departSpeed="10" />
                            

                            <vehicle id="Southbound.TR_72" route="Southbound.TR" depart="357.0" type="passenger" departSpeed="10" />
                            

                            <vehicle id="Northbound.T_73" route="Northbound.T" depart="364.0" type="passenger" departSpeed="10" />
                            

                            <vehicle id="Northbound.TR_74" route="Northbound.TR" depart="364.0" type="passenger" departSpeed="10" />
                            

                            <vehicle id="Northbound.T_75" route="Northbound.T" depart="367.0" type="passenger" departSpeed="10" />
                            

                            <vehicle id="Westbound.TR_76" route="Westbound.TR" depart="367.0" type="passenger" departSpeed="10" />
                            

                            <vehicle id="Eastbound.T_77" route="Eastbound.T" depart="370.0" type="passenger" departSpeed="10" />
                            

                            <vehicle id="Westbound.TR_78" route="Westbound.TR" depart="373.0" type="passenger" departSpeed="10" />
                            

                            <vehicle id="Southbound.T_79" route="Southbound.T" depart="374.0" type="passenger" departSpeed="10" />
                            

                            <vehicle id="Southbound.TR_80" route="Southbound.TR" depart="377.0" type="passenger" departSpeed="10" />
                            

                            <vehicle id="Southbound.TR_81" route="Southbound.TR" depart="381.0" type="passenger" departSpeed="10" />
                            

                            <vehicle id="Northbound.TR_82" route="Northbound.TR" depart="383.0" type="passenger" departSpeed="10" />
                            

                            <vehicle id="Southbound.T_83" route="Southbound.T" depart="383.0" type="passenger" departSpeed="10" />
                            

                            <vehicle id="Northbound.TR_84" route="Northbound.TR" depart="385.0" type="passenger" departSpeed="10" />
                            

                            <vehicle id="Northbound.T_85" route="Northbound.T" depart="387.0" type="passenger" departSpeed="10" />
                            

                            <vehicle id="Northbound.TR_86" route="Northbound.TR" depart="393.0" type="passenger" departSpeed="10" />
                            

                            <vehicle id="Westbound.T_87" route="Westbound.T" depart="393.0" type="passenger" departSpeed="10" />
                            

                            <vehicle id="Southbound.T_88" route="Southbound.T" depart="393.0" type="passenger" departSpeed="10" />
                            

                            <vehicle id="Northbound.T_89" route="Northbound.T" depart="393.0" type="passenger" departSpeed="10" />
                            

                            <vehicle id="Southbound.TR_90" route="Southbound.TR" depart="398.0" type="passenger" departSpeed="10" />
                            

                            <vehicle id="Westbound.T_91" route="Westbound.T" depart="400.0" type="passenger" departSpeed="10" />
                            

                        <vehicle id="Eastbound.L_92" route="Eastbound.L" depart="402.0" type="passenger" departSpeed="10" />
                        

                            <vehicle id="Southbound.T_93" route="Southbound.T" depart="402.0" type="passenger" departSpeed="10" />
                            

                            <vehicle id="Southbound.T_94" route="Southbound.T" depart="404.0" type="passenger" departSpeed="10" />
                            

                            <vehicle id="Southbound.TR_95" route="Southbound.TR" depart="406.0" type="passenger" departSpeed="10" />
                            

                            <vehicle id="Westbound.TR_96" route="Westbound.TR" depart="408.0" type="passenger" departSpeed="10" />
                            

                            <vehicle id="Westbound.TR_97" route="Westbound.TR" depart="411.0" type="passenger" departSpeed="10" />
                            

                            <vehicle id="Southbound.TR_98" route="Southbound.TR" depart="412.0" type="passenger" departSpeed="10" />
                            

                            <vehicle id="Eastbound.T_99" route="Eastbound.T" depart="413.0" type="passenger" departSpeed="10" />
                            

                            <vehicle id="Northbound.TR_100" route="Northbound.TR" depart="417.0" type="passenger" departSpeed="10" />
                            

                            <vehicle id="Eastbound.TR_101" route="Eastbound.TR" depart="417.0" type="passenger" departSpeed="10" />
                            

                            <vehicle id="Northbound.TR_102" route="Northbound.TR" depart="417.0" type="passenger" departSpeed="10" />
                            

                            <vehicle id="Northbound.TR_103" route="Northbound.TR" depart="420.0" type="passenger" departSpeed="10" />
                            

                            <vehicle id="Southbound.T_104" route="Southbound.T" depart="420.0" type="passenger" departSpeed="10" />
                            

                            <vehicle id="Northbound.TR_105" route="Northbound.TR" depart="420.0" type="passenger" departSpeed="10" />
                            

                            <vehicle id="Southbound.T_106" route="Southbound.T" depart="421.0" type="passenger" departSpeed="10" />
                            

                            <vehicle id="Northbound.T_107" route="Northbound.T" depart="421.0" type="passenger" departSpeed="10" />
                            

                            <vehicle id="Southbound.TR_108" route="Southbound.TR" depart="422.0" type="passenger" departSpeed="10" />
                            

                            <vehicle id="Southbound.TR_109" route="Southbound.TR" depart="424.0" type="passenger" departSpeed="10" />
                            

                            <vehicle id="Eastbound.TR_110" route="Eastbound.TR" depart="427.0" type="passenger" departSpeed="10" />
                            

                            <vehicle id="Northbound.L_111" route="Northbound.L" depart="431.0" type="passenger" departSpeed="10" />
                            

                            <vehicle id="Southbound.T_112" route="Southbound.T" depart="433.0" type="passenger" departSpeed="10" />
                            

                            <vehicle id="Eastbound.T_113" route="Eastbound.T" depart="433.0" type="passenger" departSpeed="10" />
                            

                        <vehicle id="Southbound.L_114" route="Southbound.L" depart="436.0" type="passenger" departSpeed="10" />
                        

                            <vehicle id="Southbound.TR_115" route="Southbound.TR" depart="437.0" type="passenger" departSpeed="10" />
                            

                            <vehicle id="Northbound.TR_116" route="Northbound.TR" depart="438.0" type="passenger" departSpeed="10" />
                            

                            <vehicle id="Westbound.TR_117" route="Westbound.TR" depart="438.0" type="passenger" departSpeed="10" />
                            

                            <vehicle id="Westbound.T_118" route="Westbound.T" depart="441.0" type="passenger" departSpeed="10" />
                            

                            <vehicle id="Northbound.T_119" route="Northbound.T" depart="441.0" type="passenger" departSpeed="10" />
                            

                            <vehicle id="Southbound.TR_120" route="Southbound.TR" depart="444.0" type="passenger" departSpeed="10" />
                            

                            <vehicle id="Northbound.T_121" route="Northbound.T" depart="444.0" type="passenger" departSpeed="10" />
                            

                            <vehicle id="Northbound.L_122" route="Northbound.L" depart="444.0" type="passenger" departSpeed="10" />
                            

                            <vehicle id="Westbound.TR_123" route="Westbound.TR" depart="446.0" type="passenger" departSpeed="10" />
                            

                            <vehicle id="Southbound.T_124" route="Southbound.T" depart="449.0" type="passenger" departSpeed="10" />
                            

                            <vehicle id="Westbound.T_125" route="Westbound.T" depart="450.0" type="passenger" departSpeed="10" />
                            

                            <vehicle id="Southbound.TR_126" route="Southbound.TR" depart="451.0" type="passenger" departSpeed="10" />
                            

                            <vehicle id="Eastbound.T_127" route="Eastbound.T" depart="453.0" type="passenger" departSpeed="10" />
                            

                            <vehicle id="Northbound.TR_128" route="Northbound.TR" depart="455.0" type="passenger" departSpeed="10" />
                            

                            <vehicle id="Eastbound.T_129" route="Eastbound.T" depart="455.0" type="passenger" departSpeed="10" />
                            

                            <vehicle id="Westbound.T_130" route="Westbound.T" depart="456.0" type="passenger" departSpeed="10" />
                            

                            <vehicle id="Westbound.TR_131" route="Westbound.TR" depart="457.0" type="passenger" departSpeed="10" />
                            

                            <vehicle id="Northbound.TR_132" route="Northbound.TR" depart="458.0" type="passenger" departSpeed="10" />
                            

                            <vehicle id="Southbound.TR_133" route="Southbound.TR" depart="461.0" type="passenger" departSpeed="10" />
                            

                            <vehicle id="Southbound.T_134" route="Southbound.T" depart="461.0" type="passenger" departSpeed="10" />
                            

                            <vehicle id="Northbound.TR_135" route="Northbound.TR" depart="464.0" type="passenger" departSpeed="10" />
                            

                            <vehicle id="Northbound.TR_136" route="Northbound.TR" depart="466.0" type="passenger" departSpeed="10" />
                            

                            <vehicle id="Westbound.TR_137" route="Westbound.TR" depart="469.0" type="passenger" departSpeed="10" />
                            

                            <vehicle id="Northbound.TR_138" route="Northbound.TR" depart="471.0" type="passenger" departSpeed="10" />
                            

                            <vehicle id="Northbound.TR_139" route="Northbound.TR" depart="471.0" type="passenger" departSpeed="10" />
                            

                            <vehicle id="Southbound.TR_140" route="Southbound.TR" depart="472.0" type="passenger" departSpeed="10" />
                            

                            <vehicle id="Southbound.T_141" route="Southbound.T" depart="472.0" type="passenger" departSpeed="10" />
                            

                            <vehicle id="Westbound.TR_142" route="Westbound.TR" depart="472.0" type="passenger" departSpeed="10" />
                            

                            <vehicle id="Northbound.TR_143" route="Northbound.TR" depart="473.0" type="passenger" departSpeed="10" />
                            

                            <vehicle id="Southbound.TR_144" route="Southbound.TR" depart="475.0" type="passenger" departSpeed="10" />
                            

                            <vehicle id="Southbound.TR_145" route="Southbound.TR" depart="482.0" type="passenger" departSpeed="10" />
                            

                            <vehicle id="Southbound.TR_146" route="Southbound.TR" depart="483.0" type="passenger" departSpeed="10" />
                            

                            <vehicle id="Eastbound.T_147" route="Eastbound.T" depart="485.0" type="passenger" departSpeed="10" />
                            

                            <vehicle id="Westbound.T_148" route="Westbound.T" depart="489.0" type="passenger" departSpeed="10" />
                            

                            <vehicle id="Southbound.T_149" route="Southbound.T" depart="490.0" type="passenger" departSpeed="10" />
                            

                            <vehicle id="Northbound.T_150" route="Northbound.T" depart="493.0" type="passenger" departSpeed="10" />
                            

                            <vehicle id="Northbound.TR_151" route="Northbound.TR" depart="493.0" type="passenger" departSpeed="10" />
                            

                            <vehicle id="Eastbound.TR_152" route="Eastbound.TR" depart="494.0" type="passenger" departSpeed="10" />
                            

                            <vehicle id="Northbound.TR_153" route="Northbound.TR" depart="496.0" type="passenger" departSpeed="10" />
                            

                            <vehicle id="Northbound.T_154" route="Northbound.T" depart="497.0" type="passenger" departSpeed="10" />
                            

                            <vehicle id="Southbound.T_155" route="Southbound.T" depart="499.0" type="passenger" departSpeed="10" />
                            

                            <vehicle id="Southbound.TR_156" route="Southbound.TR" depart="501.0" type="passenger" departSpeed="10" />
                            

                            <vehicle id="Eastbound.T_157" route="Eastbound.T" depart="502.0" type="passenger" departSpeed="10" />
                            

                            <vehicle id="Westbound.TR_158" route="Westbound.TR" depart="504.0" type="passenger" departSpeed="10" />
                            

                            <vehicle id="Southbound.TR_159" route="Southbound.TR" depart="504.0" type="passenger" departSpeed="10" />
                            

                            <vehicle id="Northbound.TR_160" route="Northbound.TR" depart="505.0" type="passenger" departSpeed="10" />
                            

                            <vehicle id="Southbound.T_161" route="Southbound.T" depart="506.0" type="passenger" departSpeed="10" />
                            

                            <vehicle id="Eastbound.TR_162" route="Eastbound.TR" depart="507.0" type="passenger" departSpeed="10" />
                            

                            <vehicle id="Eastbound.TR_163" route="Eastbound.TR" depart="508.0" type="passenger" departSpeed="10" />
                            

                            <vehicle id="Eastbound.TR_164" route="Eastbound.TR" depart="508.0" type="passenger" departSpeed="10" />
                            

                            <vehicle id="Northbound.L_165" route="Northbound.L" depart="509.0" type="passenger" departSpeed="10" />
                            

                            <vehicle id="Eastbound.TR_166" route="Eastbound.TR" depart="509.0" type="passenger" departSpeed="10" />
                            

                            <vehicle id="Eastbound.T_167" route="Eastbound.T" depart="509.0" type="passenger" departSpeed="10" />
                            

                        <vehicle id="Eastbound.L_168" route="Eastbound.L" depart="511.0" type="passenger" departSpeed="10" />
                        

                            <vehicle id="Eastbound.T_169" route="Eastbound.T" depart="511.0" type="passenger" departSpeed="10" />
                            

                            <vehicle id="Northbound.T_170" route="Northbound.T" depart="513.0" type="passenger" departSpeed="10" />
                            

                            <vehicle id="Northbound.TR_171" route="Northbound.TR" depart="515.0" type="passenger" departSpeed="10" />
                            

                            <vehicle id="Westbound.T_172" route="Westbound.T" depart="519.0" type="passenger" departSpeed="10" />
                            

                            <vehicle id="Northbound.TR_173" route="Northbound.TR" depart="521.0" type="passenger" departSpeed="10" />
                            

                        <vehicle id="Westbound.L_174" route="Westbound.L" depart="523.0" type="passenger" departSpeed="10" />
                        

                            <vehicle id="Westbound.TR_175" route="Westbound.TR" depart="523.0" type="passenger" departSpeed="10" />
                            

                            <vehicle id="Westbound.T_176" route="Westbound.T" depart="523.0" type="passenger" departSpeed="10" />
                            

                            <vehicle id="Eastbound.T_177" route="Eastbound.T" depart="523.0" type="passenger" departSpeed="10" />
                            

                            <vehicle id="Southbound.T_178" route="Southbound.T" depart="524.0" type="passenger" departSpeed="10" />
                            

                            <vehicle id="Westbound.TR_179" route="Westbound.TR" depart="524.0" type="passenger" departSpeed="10" />