
            <routes>
                <vType id="passenger" accel="0.8" decel="4.5" sigma="0.5" length="5.0" minGap="2.5" maxSpeed="16.67" guiShape="passenger" color="255,255,0"/>
                    <route id="Eastbound.L"  edges="2_0 0_3" />
                    <route id="Eastbound.T"  edges="2_0 0_1" />
                    <route id="Eastbound.TR" edges="2_0 0_4" />
                    <route id="Westbound.L"  edges="1_0 0_4" />
                    <route id="Westbound.T"  edges="1_0 0_2" />
                    <route id="Westbound.TR" edges="1_0 0_3" />
                    <route id="Northbound.L" edges="4_0 0_2" />
                    <route id="Northbound.T" edges="4_0 0_3" />
                    <route id="Northbound.TR" edges="4_0 0_1" />
                    <route id="Southbound.L" edges="3_0 0_1" />
                    <route id="Southbound.T" edges="3_0 0_4" />
                    <route id="Southbound.TR" edges="3_0 0_2" />
            

                            <vehicle id="Southbound.TR_0" route="Southbound.TR" depart="99.0" type="passenger" departSpeed="10" />
                            

                        <vehicle id="Westbound.L_1" route="Westbound.L" depart="100.0" type="passenger" departSpeed="10" />
                        

                            <vehicle id="Northbound.TR_2" route="Northbound.TR" depart="118.0" type="passenger" departSpeed="10" />
                            

                            <vehicle id="Northbound.T_3" route="Northbound.T" depart="131.0" type="passenger" departSpeed="10" />
                            

                            <vehicle id="Northbound.TR_4" route="Northbound.TR" depart="135.0" type="passenger" departSpeed="10" />
                            

                        <vehicle id="Southbound.L_5" route="Southbound.L" depart="179.0" type="passenger" departSpeed="10" />
                        

                            <vehicle id="Southbound.TR_6" route="Southbound.TR" depart="182.0" type="passenger" departSpeed="10" />
                            

                            <vehicle id="Northbound.TR_7" route="Northbound.TR" depart="185.0" type="passenger" departSpeed="10" />
                            

                            <vehicle id="Southbound.T_8" route="Southbound.T" depart="186.0" type="passenger" departSpeed="10" />
                            

                            <vehicle id="Northbound.TR_9" route="Northbound.TR" depart="186.0" type="passenger" departSpeed="10" />
                            

                            <vehicle id="Southbound.TR_10" route="Southbound.TR" depart="200.0" type="passenger" departSpeed="10" />
                            

                            <vehicle id="Northbound.L_11" route="Northbound.L" depart="215.0" type="passenger" departSpeed="10" />
                            

                        <vehicle id="Southbound.L_12" route="Southbound.L" depart="219.0" type="passenger" departSpeed="10" />
                        

                            <vehicle id="Southbound.T_13" route="Southbound.T" depart="220.0" type="passenger" departSpeed="10" />
                            

                            <vehicle id="Southbound.T_14" route="Southbound.T" depart="257.0" type="passenger" departSpeed="10" />
                            

                            <vehicle id="Southbound.T_15" route="Southbound.T" depart="279.0" type="passenger" departSpeed="10" />
                            

                            <vehicle id="Northbound.T_16" route="Northbound.T" depart="280.0" type="passenger" departSpeed="10" />
                            

                            <vehicle id="Southbound.TR_17" route="Southbound.TR" depart="283.0" type="passenger" departSpeed="10" />
                            

                            <vehicle id="Northbound.T_18" route="Northbound.T" depart="284.0" type="passenger" departSpeed="10" />
                            

                            <vehicle id="Northbound.T_19" route="Northbound.T" depart="285.0" type="passenger" departSpeed="10" />
                            

                            <vehicle id="Eastbound.T_20" route="Eastbound.T" depart="293.0" type="passenger" departSpeed="10" />
                            

                            <vehicle id="Northbound.TR_21" route="Northbound.TR" depart="304.0" type="passenger" departSpeed="10" />
                            

                            <vehicle id="Eastbound.T_22" route="Eastbound.T" depart="306.0" type="passenger" departSpeed="10" />
                            

                            <vehicle id="Eastbound.T_23" route="Eastbound.T" depart="312.0" type="passenger" departSpeed="10" />
                            

                            <vehicle id="Eastbound.T_24" route="Eastbound.T" depart="320.0" type="passenger" departSpeed="10" />
                            

                            <vehicle id="Southbound.T_25" route="Southbound.T" depart="320.0" type="passenger" departSpeed="10" />
                            

                            <vehicle id="Northbound.TR_26" route="Northbound.TR" depart="324.0" type="passenger" departSpeed="10" />
                            

                            <vehicle id="Southbound.T_27" route="Southbound.T" depart="330.0" type="passenger" departSpeed="10" />
                            

                            <vehicle id="Westbound.T_28" route="Westbound.T" depart="331.0" type="passenger" departSpeed="10" />
                            

                            <vehicle id="Northbound.T_29" route="Northbound.T" depart="335.0" type="passenger" departSpeed="10" />
                            

                            <vehicle id="Southbound.TR_30" route="Southbound.TR" depart="358.0" type="passenger" departSpeed="10" />
                            

                            <vehicle id="Southbound.TR_31" route="Southbound.TR" depart="367.0" type="passenger" departSpeed="10" />
                            

                            <vehicle id="Southbound.TR_32" route="Southbound.TR" depart="367.0" type="passenger" departSpeed="10" />
                            

                        <vehicle id="Westbound.L_33" route="Westbound.L" depart="373.0" type="passenger" departSpeed="10" />
                        

                            <vehicle id="Northbound.T_34" route="Northbound.T" depart="375.0" type="passenger" departSpeed="10" />
                            

                            <vehicle id="Northbound.T_35" route="Northbound.T" depart="377.0" type="passenger" departSpeed="10" />
                            

                            <vehicle id="Westbound.T_36" route="Westbound.T" depart="400.0" type="passenger" departSpeed="10" />
                            

                            <vehicle id="Westbound.TR_37" route="Westbound.TR" depart="403.0" type="passenger" departSpeed="10" />
                            

                            <vehicle id="Northbound.TR_38" route="Northbound.TR" depart="407.0" type="passenger" departSpeed="10" />
                            

                            <vehicle id="Eastbound.T_39" route="Eastbound.T" depart="407.0" type="passenger" departSpeed="10" />
                            

                            <vehicle id="Northbound.T_40" route="Northbound.T" depart="412.0" type="passenger" departSpeed="10" />
                            

                        <vehicle id="Eastbound.L_41" route="Eastbound.L" depart="418.0" type="passenger" departSpeed="10" />
                        

                            <vehicle id="Southbound.T_42" route="Southbound.T" depart="421.0" type="passenger" departSpeed="10" />
                            

                            <vehicle id="Northbound.T_43" route="Northbound.T" depart="424.0" type="passenger" departSpeed="10" />
                            

                            <vehicle id="Southbound.T_44" route="Southbound.T" depart="436.0" type="passenger" departSpeed="10" />
                            

                            <vehicle id="Eastbound.TR_45" route="Eastbound.TR" depart="437.0" type="passenger" departSpeed="10" />
                            

                        <vehicle id="Westbound.L_46" route="Westbound.L" depart="440.0" type="passenger" departSpeed="10" />
                        

                            <vehicle id="Southbound.TR_47" route="Southbound.TR" depart="443.0" type="passenger" departSpeed="10" />
                            

                            <vehicle id="Northbound.T_48" route="Northbound.T" depart="447.0" type="passenger" departSpeed="10" />
                            

                            <vehicle id="Southbound.TR_49" route="Southbound.TR" depart="455.0" type="passenger" departSpeed="10" />
                            

                            <vehicle id="Southbound.T_50" route="Southbound.T" depart="457.0" type="passenger" departSpeed="10" />
                            

                            <vehicle id="Westbound.TR_51" route="Westbound.TR" depart="460.0" type="passenger" departSpeed="10" />
                            

                            <vehicle id="Westbound.T_52" route="Westbound.T" depart="465.0" type="passenger" departSpeed="10" />
                            

                            <vehicle id="Westbound.TR_53" route="Westbound.TR" depart="468.0" type="passenger" departSpeed="10" />
                            

                            <vehicle id="Northbound.T_54" route="Northbound.T" depart="472.0" type="passenger" departSpeed="10" />
                            

                            <vehicle id="Northbound.T_55" route="Northbound.T" depart="479.0" type="passenger" departSpeed="10" />
                            

                            <vehicle id="Northbound.T_56" route="Northbound.T" depart="480.0" type="passenger" departSpeed="10" />
                            

                            <vehicle id="Northbound.T_57" route="Northbound.T" depart="485.0" type="passenger" departSpeed="10" />
                            

                            <vehicle id="Westbound.T_58" route="Westbound.T" depart="486.0" type="passenger" departSpeed="10" />
                            

                        <vehicle id="Southbound.L_59" route="Southbound.L" depart="497.0" type="passenger" departSpeed="10" />
                        

                            <vehicle id="Northbound.T_60" route="Northbound.T" depart="511.0" type="passenger" departSpeed="10" />
                            

                            <vehicle id="Northbound.TR_61" route="Northbound.TR" depart="515.0" type="passenger" departSpeed="10" />
                            

                            <vehicle id="Eastbound.T_62" route="Eastbound.T" depart="515.0" type="passenger" departSpeed="10" />
                            

                            <vehicle id="Westbound.T_63" route="Westbound.T" depart="517.0" type="passenger" departSpeed="10" />
                            

                            <vehicle id="Northbound.TR_64" route="Northbound.TR" depart="519.0" type="passenger" departSpeed="10" />
                            

                            <vehicle id="Northbound.T_65" route="Northbound.T" depart="519.0" type="passenger" departSpeed="10" />
                            

                            <vehicle id="Westbound.TR_66" route="Westbound.TR" depart="529.0" type="passenger" departSpeed="10" />
                            

                            <vehicle id="Northbound.TR_67" route="Northbound.TR" depart="531.0" type="passenger" departSpeed="10" />
                            

                        <vehicle id="Southbound.L_68" route="Southbound.L" depart="532.0" type="passenger" departSpeed="10" />
                        

                            <vehicle id="Westbound.TR_69" route="Westbound.TR" depart="535.0" type="passenger" departSpeed="10" />
                            

                            <vehicle id="Southbound.T_70" route="Southbound.T" depart="536.0" type="passenger" departSpeed="10" />
                            

                            <vehicle id="Northbound.T_71" route="Northbound.T" depart="538.0" type="passenger" departSpeed="10" />
                            

                            <vehicle id="Eastbound.T_72" route="Eastbound.T" depart="538.0" type="passenger" departSpeed="10" />
                            

                            <vehicle id="Southbound.T_73" route="Southbound.T" depart="549.0" type="passenger" departSpeed="10" />
                            

                            <vehicle id="Southbound.TR_74" route="Southbound.TR" depart="550.0" type="passenger" departSpeed="10" />
                            

                            <vehicle id="Northbound.T_75" route="Northbound.T" depart="554.0" type="passenger" departSpeed="10" />
                            

                            <vehicle id="Northbound.TR_76" route="Northbound.TR" depart="554.0" type="passenger" departSpeed="10" />
                            

                            <vehicle id="Northbound.T_77" route="Northbound.T" depart="558.0" type="passenger" departSpeed="10" />
                            

                            <vehicle id="Westbound.TR_78" route="Westbound.TR" depart="563.0" type="passenger" departSpeed="10" />
                            

                            <vehicle id="Eastbound.T_79" route="Eastbound.T" depart="565.0" type="passenger" departSpeed="10" />
                            

                            <vehicle id="Westbound.TR_80" route="Westbound.TR" depart="569.0" type="passenger" departSpeed="10" />
                            

                            <vehicle id="Southbound.T_81" route="Southbound.T" depart="575.0" type="passenger" departSpeed="10" />
                            

                            <vehicle id="Southbound.TR_82" route="Southbound.TR" depart="577.0" type="passenger" departSpeed="10" />
                            

                            <vehicle id="Southbound.TR_83" route="Southbound.TR" depart="577.0" type="passenger" departSpeed="10" />
                            

                            <vehicle id="Northbound.TR_84" route="Northbound.TR" depart="581.0" type="passenger" departSpeed="10" />
                            

                            <vehicle id="Southbound.T_85" route="Southbound.T" depart="583.0" type="passenger" departSpeed="10" />
                            

                            <vehicle id="Northbound.TR_86" route="Northbound.TR" depart="592.0" type="passenger" departSpeed="10" />
                            

                            <vehicle id="Northbound.T_87" route="Northbound.T" depart="592.0" type="passenger" departSpeed="10" />
                            

                            <vehicle id="Northbound.TR_88" route="Northbound.TR" depart="592.0" type="passenger" departSpeed="10" />
                            

                            <vehicle id="Westbound.T_89" route="Westbound.T" depart="593.0" type="passenger" departSpeed="10" />
                            

                            <vehicle id="Southbound.T_90" route="Southbound.T" depart="600.0" type="passenger" departSpeed="10" />
                            

                            <vehicle id="Northbound.T_91" route="Northbound.T" depart="604.0" type="passenger" departSpeed="10" />
                            

                            <vehicle id="Southbound.TR_92" route="Southbound.TR" depart="606.0" type="passenger" departSpeed="10" />
                            

                            <vehicle id="Westbound.T_93" route="Westbound.T" depart="606.0" type="passenger" departSpeed="10" />
                            

                        <vehicle id="Eastbound.L_94" route="Eastbound.L" depart="609.0" type="passenger" departSpeed="10" />
                        

                            <vehicle id="Southbound.T_95" route="Southbound.T" depart="612.0" type="passenger" departSpeed="10" />
                            

                            <vehicle id="Southbound.T_96" route="Southbound.T" depart="615.0" type="passenger" departSpeed="10" />
                            

                            <vehicle id="Southbound.TR_97" route="Southbound.TR" depart="620.0" type="passenger" departSpeed="10" />
                            

                            <vehicle id="Westbound.TR_98" route="Westbound.TR" depart="621.0" type="passenger" departSpeed="10" />
                            

                            <vehicle id="Westbound.TR_99" route="Westbound.TR" depart="622.0" type="passenger" departSpeed="10" />
                            

                            <vehicle id="Southbound.TR_100" route="Southbound.TR" depart="628.0" type="passenger" departSpeed="10" />
                            

                            <vehicle id="Eastbound.T_101" route="Eastbound.T" depart="629.0" type="passenger" departSpeed="10" />
                            

                        <vehicle id="Southbound.L_102" route="Southbound.L" depart="629.0" type="passenger" departSpeed="10" />
                        

                            <vehicle id="Northbound.L_103" route="Northbound.L" depart="634.0" type="passenger" departSpeed="10" />
                            

                        <vehicle id="Eastbound.L_104" route="Eastbound.L" depart="634.0" type="passenger" departSpeed="10" />
                        

                            <vehicle id="Southbound.TR_105" route="Southbound.TR" depart="634.0" type="passenger" departSpeed="10" />
                            

                            <vehicle id="Northbound.TR_106" route="Northbound.TR" depart="635.0" type="passenger" departSpeed="10" />
                            

                            <vehicle id="Southbound.T_107" route="Southbound.T" depart="635.0" type="passenger" departSpeed="10" />
                            

                            <vehicle id="Southbound.T_108" route="Southbound.T" depart="636.0" type="passenger" departSpeed="10" />
                            

                            <vehicle id="Eastbound.T_109" route="Eastbound.T" depart="640.0" type="passenger" departSpeed="10" />
                            

                            <vehicle id="Southbound.T_110" route="Southbound.T" depart="645.0" type="passenger" departSpeed="10" />
                            

                            <vehicle id="Southbound.TR_111" route="Southbound.TR" depart="650.0" type="passenger" departSpeed="10" />
                            

                            <vehicle id="Northbound.TR_112" route="Northbound.TR" depart="652.0" type="passenger" departSpeed="10" />
                            

                            <vehicle id="Northbound.TR_113" route="Northbound.TR" depart="653.0" type="passenger" departSpeed="10" />
                            

                            <vehicle id="Southbound.T_114" route="Southbound.T" depart="658.0" type="passenger" departSpeed="10" />
                            

                            <vehicle id="Southbound.T_115" route="Southbound.T" depart="659.0" type="passenger" departSpeed="10" />
                            

                            <vehicle id="Southbound.T_116" route="Southbound.T" depart="660.0" type="passenger" departSpeed="10" />
                            

                            <vehicle id="Eastbound.TR_117" route="Eastbound.TR" depart="661.0" type="passenger" departSpeed="10" />
                            

                            <vehicle id="Southbound.TR_118" route="Southbound.TR" depart="665.0" type="passenger" departSpeed="10" />
                            

                            <vehicle id="Southbound.TR_119" route="Southbound.TR" depart="666.0" type="passenger" departSpeed="10" />
                            

                        <vehicle id="Eastbound.L_120" route="Eastbound.L" depart="669.0" type="passenger" departSpeed="10" />
                        

                            <vehicle id="Northbound.T_121" route="Northbound.T" depart="670.0" type="passenger" departSpeed="10" />
                            

                            <vehicle id="Northbound.T_122" route="Northbound.T" depart="670.0" type="passenger" departSpeed="10" />
                            

                            <vehicle id="Southbound.T_123" route="Southbound.T" depart="672.0" type="passenger" departSpeed="10" />
                            

                            <vehicle id="Northbound.L_124" route="Northbound.L" depart="677.0" type="passenger" departSpeed="10" />
                            

                            <vehicle id="Southbound.TR_125" route="Southbound.TR" depart="678.0" type="passenger" departSpeed="10" />
                            

                            <vehicle id="Northbound.TR_126" route="Northbound.TR" depart="680.0" type="passenger" departSpeed="10" />
                            

                            <vehicle id="Southbound.T_127" route="Southbound.T" depart="684.0" type="passenger" departSpeed="10" />
                            

                            <vehicle id="Eastbound.T_128" route="Eastbound.T" depart="686.0" type="passenger" departSpeed="10" />
                            

                            <vehicle id="Eastbound.T_129" route="Eastbound.T" depart="686.0" type="passenger" departSpeed="10" />
                            

                            <vehicle id="Northbound.TR_130" route="Northbound.TR" depart="688.0" type="passenger" departSpeed="10" />
                            

                            <vehicle id="Northbound.T_131" route="Northbound.T" depart="689.0" type="passenger" departSpeed="10" />
                            

                            <vehicle id="Southbound.TR_132" route="Southbound.TR" depart="691.0" type="passenger" departSpeed="10" />
                            

                        <vehicle id="Southbound.L_133" route="Southbound.L" depart="695.0" type="passenger" departSpeed="10" />
                        

                            <vehicle id="Southbound.TR_134" route="Southbound.TR" depart="696.0" type="passenger" departSpeed="10" />
                            

                        <vehicle id="Eastbound.L_135" route="Eastbound.L" depart="700.0" type="passenger" departSpeed="10" />
                        

                            <vehicle id="Southbound.T_136" route="Southbound.T" depart="702.0" type="passenger" departSpeed="10" />
                            

                            <vehicle id="Eastbound.TR_137" route="Eastbound.TR" depart="707.0" type="passenger" departSpeed="10" />
                            

                            <vehicle id="Southbound.TR_138" route="Southbound.TR" depart="711.0" type="passenger" departSpeed="10" />
                            

                            <vehicle id="Eastbound.T_139" route="Eastbound.T" depart="711.0" type="passenger" departSpeed="10" />
                            

                            <vehicle id="Northbound.TR_140" route="Northbound.TR" depart="711.0" type="passenger" departSpeed="10" />
                            

                        <vehicle id="Westbound.L_141" route="Westbound.L" depart="712.0" type="passenger" departSpeed="10" />
                        

                            <vehicle id="Northbound.TR_142" route="Northbound.TR" depart="712.0" type="passenger" departSpeed="10" />
                            

                            <vehicle id="Northbound.TR_143" route="Northbound.TR" depart="713.0" type="passenger" departSpeed="10" />
                            

                            <vehicle id="Southbound.TR_144" route="Southbound.TR" depart="716.0" type="passenger" departSpeed="10" />
                            

                            <vehicle id="Southbound.T_145" route="Southbound.T" depart="727.0" type="passenger" departSpeed="10" />
                            

                            <vehicle id="Westbound.TR_146" route="Westbound.TR" depart="729.0" type="passenger" departSpeed="10" />
                            

                            <vehicle id="Northbound.TR_147" route="Northbound.TR" depart="731.0" type="passenger" departSpeed="10" />
                            

                            <vehicle id="Southbound.TR_148" route="Southbound.TR" depart="737.0" type="passenger" departSpeed="10" />
                            

                            <vehicle id="Southbound.TR_149" route="Southbound.TR" depart="739.0" type="passenger" departSpeed="10" />
                            

                        <vehicle id="Eastbound.L_150" route="Eastbound.L" depart="743.0" type="passenger" departSpeed="10" />
                        

                            <vehicle id="Northbound.T_151" route="Northbound.T" depart="744.0" type="passenger" departSpeed="10" />
                            

                            <vehicle id="Northbound.TR_152" route="Northbound.TR" depart="745.0" type="passenger" departSpeed="10" />
                            

                        <vehicle id="Westbound.L_153" route="Westbound.L" depart="748.0" type="passenger" departSpeed="10" />
                        

                            <vehicle id="Northbound.T_154" route="Northbound.T" depart="750.0" type="passenger" departSpeed="10" />
                            

                            <vehicle id="Northbound.TR_155" route="Northbound.TR" depart="753.0" type="passenger" departSpeed="10" />
                            

                            <vehicle id="Eastbound.T_156" route="Eastbound.T" depart="755.0" type="passenger" departSpeed="10" />
                            

                            <vehicle id="Eastbound.TR_157" route="Eastbound.TR" depart="758.0" type="passenger" departSpeed="10" />
                            

                            <vehicle id="Eastbound.T_158" route="Eastbound.T" depart="760.0" type="passenger" departSpeed="10" />
                            

                        <vehicle id="Eastbound.L_159" route="Eastbound.L" depart="761.0" type="passenger" departSpeed="10" />
                        

                        <vehicle id="Southbound.L_160" route="Southbound.L" depart="762.0" type="passenger" departSpeed="10" />
                        

                            <vehicle id="Northbound.TR_161" route="Northbound.TR" depart="763.0" type="passenger" departSpeed="10" />
                            

                            <vehicle id="Northbound.T_162" route="Northbound.T" depart="765.0" type="passenger" departSpeed="10" />
                            

                            <vehicle id="Northbound.L_163" route="Northbound.L" depart="766.0" type="passenger" departSpeed="10" />
                            

                            <vehicle id="Northbound.L_164" route="Northbound.L" depart="766.0" type="passenger" departSpeed="10" />
                            

                            <vehicle id="Westbound.TR_165" route="Westbound.TR" depart="767.0" type="passenger" departSpeed="10" />
                            

                            <vehicle id="Northbound.T_166" route="Northbound.T" depart="768.0" type="passenger" departSpeed="10" />
                            

                            <vehicle id="Southbound.T_167" route="Southbound.T" depart="768.0" type="passenger" departSpeed="10" />
                            

                            <vehicle id="Southbound.T_168" route="Southbound.T" depart="770.0" type="passenger" departSpeed="10" />
                            

                            <vehicle id="Northbound.T_169" route="Northbound.T" depart="770.0" type="passenger" departSpeed="10" />
                            

                        <vehicle id="Eastbound.L_170" route="Eastbound.L" depart="773.0" type="passenger" departSpeed="10" />
                        

                            <vehicle id="Southbound.T_171" route="Southbound.T" depart="777.0" type="passenger" departSpeed="10" />
                            

                            <vehicle id="Northbound.L_172" route="Northbound.L" depart="782.0" type="passenger" departSpeed="10" />
                            

                            <vehicle id="Westbound.T_173" route="Westbound.T" depart="786.0" type="passenger" departSpeed="10" />
                            

                            <vehicle id="Southbound.TR_174" route="Southbound.TR" depart="788.0" type="passenger" departSpeed="10" />
                            

                            <vehicle id="Westbound.TR_175" route="Westbound.TR" depart="789.0" type="passenger" departSpeed="10" />
                            

                            <vehicle id="Northbound.T_176" route="Northbound.T" depart="789.0" type="passenger" departSpeed="10" />
                            

                            <vehicle id="Eastbound.T_177" route="Eastbound.T" depart="789.0" type="passenger" departSpeed="10" />
                            

                            <vehicle id="Southbound.T_178" route="Southbound.T" depart="790.0" type="passenger" departSpeed="10" />
                            

                            <vehicle id="Northbound.T_179" route="Northbound.T" depart="790.0" type="passenger" departSpeed="10" />
                            
