<?xml version="1.0" encoding="UTF-8"?>

<!-- generated on Fri 10 Jul 2020 03:28:50 PM WAT by Eclipse SUMO netedit Version 1.6.0
<configuration xmlns:xsi="http://www.w3.org/2001/XMLSchema-instance" xsi:noNamespaceSchemaLocation="http://sumo.dlr.de/xsd/netconvertConfiguration.xsd">

    <input>
        <sumo-net-file value="/home/godmind/test_project/network/cross.net.xml"/>
    </input>

    <output>
        <output-file value="/home/godmind/test_project/network/cross.net.xml"/>
    </output>

    <processing>
        <geometry.min-radius.fix.railways value="false"/>
        <geometry.max-grade.fix value="false"/>
        <offset.disable-normalization value="true"/>
        <lefthand value="false"/>
    </processing>

    <junctions>
        <no-turnarounds value="true"/>
        <junctions.corner-detail value="5"/>
        <junctions.limit-turn-speed value="5.5"/>
        <rectangular-lane-cut value="false"/>
    </junctions>

    <pedestrian>
        <walkingareas value="false"/>
    </pedestrian>

    <report>
        <aggregate-warnings value="5"/>
    </report>

</configuration>
-->

<net version="1.6" junctionCornerDetail="5" limitTurnSpeed="5.50" xmlns:xsi="http://www.w3.org/2001/XMLSchema-instance" xsi:noNamespaceSchemaLocation="http://sumo.dlr.de/xsd/net_file.xsd">

    <location netOffset="0.00,0.00" convBoundary="-300.00,-300.00,300.00,300.00" origBoundary="-10000000000.00,-10000000000.00,10000000000.00,10000000000.00" projParameter="!"/>

    <edge id=":0_0" function="internal">
        <lane id=":0_0_0" index="0" disallow="pedestrian" speed="7.02" length="10.69" shape="-10.00,15.60 -10.35,12.27 -11.40,9.90 -13.15,8.47 -15.60,8.00"/>
    </edge>
    <edge id=":0_1" function="internal">
        <lane id=":0_1_0" index="0" disallow="pedestrian" speed="13.89" length="31.26" shape="-10.00,15.60 -8.00,-15.60"/>
        <lane id=":0_1_1" index="1" disallow="pedestrian" speed="13.89" length="31.26" shape="-6.80,15.60 -4.80,-15.60"/>
    </edge>
    <edge id=":0_3" function="internal">
        <lane id=":0_3_0" index="0" disallow="pedestrian" speed="11.30" length="29.37" shape="-3.60,15.60 -2.40,8.08 1.20,2.70 7.20,-0.52 15.60,-1.60"/>
    </edge>
    <edge id=":0_4" function="internal">
        <lane id=":0_4_0" index="0" disallow="pedestrian" speed="7.02" length="10.69" shape="15.60,10.00 12.27,10.35 9.90,11.40 8.47,13.15 8.00,15.60"/>
    </edge>
    <edge id=":0_5" function="internal">
        <lane id=":0_5_0" index="0" disallow="pedestrian" speed="13.89" length="31.26" shape="15.60,10.00 -15.60,8.00"/>
        <lane id=":0_5_1" index="1" disallow="pedestrian" speed="13.89" length="31.26" shape="15.60,6.80 -15.60,4.80"/>
    </edge>
    <edge id=":0_7" function="internal">
        <lane id=":0_7_0" index="0" disallow="pedestrian" speed="11.30" length="29.37" shape="15.60,3.60 8.08,2.40 2.70,-1.20 -0.52,-7.20 -1.60,-15.60"/>
    </edge>
    <edge id=":0_8" function="internal">
        <lane id=":0_8_0" index="0" disallow="pedestrian" speed="7.02" length="10.69" shape="10.00,-15.60 10.35,-12.27 11.40,-9.90 13.15,-8.47 15.60,-8.00"/>
    </edge>
    <edge id=":0_9" function="internal">
        <lane id=":0_9_0" index="0" disallow="pedestrian" speed="13.89" length="31.26" shape="10.00,-15.60 8.00,15.60"/>
        <lane id=":0_9_1" index="1" disallow="pedestrian" speed="13.89" length="31.26" shape="6.80,-15.60 4.80,15.60"/>
    </edge>
    <edge id=":0_11" function="internal">
        <lane id=":0_11_0" index="0" disallow="pedestrian" speed="11.30" length="29.37" shape="3.60,-15.60 2.40,-8.08 -1.20,-2.70 -7.20,0.52 -15.60,1.60"/>
    </edge>
    <edge id=":0_12" function="internal">
        <lane id=":0_12_0" index="0" disallow="pedestrian" speed="7.02" length="10.69" shape="-15.60,-10.00 -12.27,-10.35 -9.90,-11.40 -8.47,-13.15 -8.00,-15.60"/>
    </edge>
    <edge id=":0_13" function="internal">
        <lane id=":0_13_0" index="0" disallow="pedestrian" speed="13.89" length="31.26" shape="-15.60,-10.00 15.60,-8.00"/>
        <lane id=":0_13_1" index="1" disallow="pedestrian" speed="13.89" length="31.26" shape="-15.60,-6.80 15.60,-4.80"/>
    </edge>
    <edge id=":0_15" function="internal">
        <lane id=":0_15_0" index="0" disallow="pedestrian" speed="11.30" length="29.37" shape="-15.60,-3.60 -8.08,-2.40 -2.70,1.20 0.52,7.20 1.60,15.60"/>
    </edge>

    <edge id="0_1" from="0" to="1" priority="-1">
        <lane id="0_1_0" index="0" speed="13.89" length="284.40" shape="-15.60,8.00 -300.00,8.00"/>
        <lane id="0_1_1" index="1" speed="13.89" length="284.40" shape="-15.60,4.80 -300.00,4.80"/>
        <lane id="0_1_2" index="2" speed="13.89" length="284.40" shape="-15.60,1.60 -300.00,1.60"/>
    </edge>
    <edge id="0_2" from="0" to="2" priority="-1">
        <lane id="0_2_0" index="0" speed="13.89" length="284.40" shape="15.60,-8.00 300.00,-8.00"/>
        <lane id="0_2_1" index="1" speed="13.89" length="284.40" shape="15.60,-4.80 300.00,-4.80"/>
        <lane id="0_2_2" index="2" speed="13.89" length="284.40" shape="15.60,-1.60 300.00,-1.60"/>
    </edge>
    <edge id="0_3" from="0" to="3" priority="-1">
        <lane id="0_3_0" index="0" speed="13.89" length="284.40" shape="-8.00,-15.60 -8.00,-300.00"/>
        <lane id="0_3_1" index="1" speed="13.89" length="284.40" shape="-4.80,-15.60 -4.80,-300.00"/>
        <lane id="0_3_2" index="2" speed="13.89" length="284.40" shape="-1.60,-15.60 -1.60,-300.00"/>
    </edge>
    <edge id="0_4" from="0" to="4" priority="-1">
        <lane id="0_4_0" index="0" speed="13.89" length="284.40" shape="8.00,15.60 8.00,300.00"/>
        <lane id="0_4_1" index="1" speed="13.89" length="284.40" shape="4.80,15.60 4.80,300.00"/>
        <lane id="0_4_2" index="2" speed="13.89" length="284.40" shape="1.60,15.60 1.60,300.00"/>
    </edge>
    <edge id="1_0" from="1" to="0" priority="-1">
        <lane id="1_0_0" index="0" disallow="pedestrian" speed="13.89" length="284.40" shape="-300.00,-10.00 -15.60,-10.00"/>
        <lane id="1_0_1" index="1" disallow="pedestrian" speed="13.89" length="284.40" shape="-300.00,-6.80 -15.60,-6.80"/>
        <lane id="1_0_2" index="2" disallow="pedestrian" speed="13.89" length="284.40" shape="-300.00,-3.60 -15.60,-3.60"/>
        <lane id="1_0_3" index="3" allow="pedestrian" speed="13.89" length="284.40" width="2.00" shape="-300.00,-1.00 -15.60,-1.00"/>
    </edge>
    <edge id="2_0" from="2" to="0" priority="-1">
        <lane id="2_0_0" index="0" disallow="pedestrian" speed="13.89" length="284.40" shape="300.00,10.00 15.60,10.00"/>
        <lane id="2_0_1" index="1" disallow="pedestrian" speed="13.89" length="284.40" shape="300.00,6.80 15.60,6.80"/>
        <lane id="2_0_2" index="2" disallow="pedestrian" speed="13.89" length="284.40" shape="300.00,3.60 15.60,3.60"/>
        <lane id="2_0_3" index="3" allow="pedestrian" speed="13.89" length="284.40" width="2.00" shape="300.00,1.00 15.60,1.00"/>
    </edge>
    <edge id="3_0" from="3" to="0" priority="-1">
        <lane id="3_0_0" index="0" disallow="pedestrian" speed="13.89" length="284.40" shape="10.00,-300.00 10.00,-15.60"/>
        <lane id="3_0_1" index="1" disallow="pedestrian" speed="13.89" length="284.40" shape="6.80,-300.00 6.80,-15.60"/>
        <lane id="3_0_2" index="2" disallow="pedestrian" speed="13.89" length="284.40" shape="3.60,-300.00 3.60,-15.60"/>
        <lane id="3_0_3" index="3" allow="pedestrian" speed="13.89" length="284.40" width="2.00" shape="1.00,-300.00 1.00,-15.60"/>
    </edge>
    <edge id="4_0" from="4" to="0" priority="-1">
        <lane id="4_0_0" index="0" disallow="pedestrian" speed="13.89" length="284.40" shape="-10.00,300.00 -10.00,15.60"/>
        <lane id="4_0_1" index="1" disallow="pedestrian" speed="13.89" length="284.40" shape="-6.80,300.00 -6.80,15.60"/>
        <lane id="4_0_2" index="2" disallow="pedestrian" speed="13.89" length="284.40" shape="-3.60,300.00 -3.60,15.60"/>
        <lane id="4_0_3" index="3" allow="pedestrian" speed="13.89" length="284.40" width="2.00" shape="-1.00,300.00 -1.00,15.60"/>
    </edge>

    <tlLogic id="0" type="static" programID="0" offset="0">
        <phase duration="33" state="GGGrrrrrGGGrrrrr"/>
        <phase duration="4"  state="yyyrrrrryyyrrrrr"/>
        <phase duration="2"  state="rrrrrrrrrrrrrrrr"/>
        <phase duration="15" state="rrrGrrrrrrrGrrrr"/>
        <phase duration="4"  state="rrryrrrrrrryrrrr"/>
        <phase duration="2"  state="rrrrrrrrrrrrrrrr"/>
        <phase duration="33" state="rrrrGGGrrrrrGGGr"/>
        <phase duration="4"  state="rrrryyyrrrrryyyr"/>
        <phase duration="2"  state="rrrrrrrrrrrrrrrr"/>
        <phase duration="15" state="rrrrrrrGrrrrrrrG"/>
        <phase duration="4"  state="rrrrrrryrrrrrrry"/>
        <phase duration="2"  state="rrrrrrrrrrrrrrrr"/>
    </tlLogic>

    <junction id="0" type="traffic_light" x="0.00" y="0.00" incLanes="4_0_0 4_0_1 4_0_2 4_0_3 2_0_0 2_0_1 2_0_2 2_0_3 3_0_0 3_0_1 3_0_2 3_0_3 1_0_0 1_0_1 1_0_2 1_0_3" intLanes=":0_0_0 :0_1_0 :0_1_1 :0_3_0 :0_4_0 :0_5_0 :0_5_1 :0_7_0 :0_8_0 :0_9_0 :0_9_1 :0_11_0 :0_12_0 :0_13_0 :0_13_1 :0_15_0" shape="-11.60,15.60 9.60,15.60 10.27,13.38 11.10,12.60 12.27,12.04 13.77,11.71 15.60,11.60 15.60,-9.60 13.38,-10.27 12.60,-11.10 12.04,-12.27 11.71,-13.77 11.60,-15.60 -9.60,-15.60 -10.27,-13.38 -11.10,-12.60 -12.27,-12.04 -13.77,-11.71 -15.60,-11.60 -15.60,9.60 -13.38,10.27 -12.60,11.10 -12.04,12.27 -11.71,13.77">
        <request index="0"  response="0000000000000000" foes="0000000001100000" cont="0"/>
        <request index="1"  response="0000000000000000" foes="1111100001100000" cont="0"/>
        <request index="2"  response="0000000000000000" foes="1111100001100000" cont="0"/>
        <request index="3"  response="0000000000000000" foes="1000011011100000" cont="0"/>
        <request index="4"  response="0000011000000000" foes="0000011000000000" cont="0"/>
        <request index="5"  response="0000011000001111" foes="1000011000001111" cont="0"/>
        <request index="6"  response="0000011000001111" foes="1000011000001111" cont="0"/>
        <request index="7"  response="0000000000000000" foes="0110111000001000" cont="0"/>
        <request index="8"  response="0000000000000000" foes="0110000000000000" cont="0"/>
        <request index="9"  response="0000000000000000" foes="0110000011111000" cont="0"/>
        <request index="10" response="0000000000000000" foes="0110000011111000" cont="0"/>
        <request index="11" response="0000000000000000" foes="1110000010000110" cont="0"/>
        <request index="12" response="0000000000000110" foes="0000000000000110" cont="0"/>
        <request index="13" response="0000111100000110" foes="0000111110000110" cont="0"/>
        <request index="14" response="0000111100000110" foes="0000111110000110" cont="0"/>
        <request index="15" response="0000100001101110" foes="0000100001101110" cont="0"/>
    </junction>
    <junction id="1" type="dead_end" x="-300.00" y="0.00" incLanes="0_1_0 0_1_1 0_1_2" intLanes="" shape="-300.00,0.00 -300.00,9.60 -300.00,0.00"/>
    <junction id="2" type="dead_end" x="300.00" y="0.00" incLanes="0_2_0 0_2_1 0_2_2" intLanes="" shape="300.00,0.00 300.00,-9.60 300.00,0.00"/>
    <junction id="3" type="dead_end" x="0.00" y="-300.00" incLanes="0_3_0 0_3_1 0_3_2" intLanes="" shape="0.00,-300.00 -9.60,-300.00 0.00,-300.00"/>
    <junction id="4" type="dead_end" x="0.00" y="300.00" incLanes="0_4_0 0_4_1 0_4_2" intLanes="" shape="0.00,300.00 9.60,300.00 0.00,300.00"/>

    <connection from="1_0" to="0_3" fromLane="0" toLane="0" via=":0_12_0" tl="0" linkIndex="12" dir="r" state="o"/>
    <connection from="1_0" to="0_2" fromLane="0" toLane="0" via=":0_13_0" tl="0" linkIndex="13" dir="s" state="o"/>
    <connection from="1_0" to="0_2" fromLane="1" toLane="1" via=":0_13_1" tl="0" linkIndex="14" dir="s" state="o"/>
    <connection from="1_0" to="0_4" fromLane="2" toLane="2" via=":0_15_0" tl="0" linkIndex="15" dir="l" state="o"/>
    <connection from="2_0" to="0_4" fromLane="0" toLane="0" via=":0_4_0" tl="0" linkIndex="4" dir="r" state="o"/>
    <connection from="2_0" to="0_1" fromLane="0" toLane="0" via=":0_5_0" tl="0" linkIndex="5" dir="s" state="o"/>
    <connection from="2_0" to="0_1" fromLane="1" toLane="1" via=":0_5_1" tl="0" linkIndex="6" dir="s" state="o"/>
    <connection from="2_0" to="0_3" fromLane="2" toLane="2" pass="1" via=":0_7_0" tl="0" linkIndex="7" dir="l" state="O"/>
    <connection from="3_0" to="0_2" fromLane="0" toLane="0" via=":0_8_0" tl="0" linkIndex="8" dir="r" state="O"/>
    <connection from="3_0" to="0_4" fromLane="0" toLane="0" via=":0_9_0" tl="0" linkIndex="9" dir="s" state="O"/>
    <connection from="3_0" to="0_4" fromLane="1" toLane="1" via=":0_9_1" tl="0" linkIndex="10" dir="s" state="O"/>
    <connection from="3_0" to="0_1" fromLane="2" toLane="2" pass="1" via=":0_11_0" tl="0" linkIndex="11" dir="l" state="O"/>
    <connection from="4_0" to="0_1" fromLane="0" toLane="0" via=":0_0_0" tl="0" linkIndex="0" dir="r" state="O"/>
    <connection from="4_0" to="0_3" fromLane="0" toLane="0" via=":0_1_0" tl="0" linkIndex="1" dir="s" state="O"/>
    <connection from="4_0" to="0_3" fromLane="1" toLane="1" via=":0_1_1" tl="0" linkIndex="2" dir="s" state="O"/>
    <connection from="4_0" to="0_2" fromLane="2" toLane="2" pass="1" via=":0_3_0" tl="0" linkIndex="3" dir="l" state="O"/>

    <connection from=":0_0" to="0_1" fromLane="0" toLane="0" dir="r" state="M"/>
    <connection from=":0_1" to="0_3" fromLane="0" toLane="0" dir="s" state="M"/>
    <connection from=":0_1" to="0_3" fromLane="1" toLane="1" dir="s" state="M"/>
    <connection from=":0_3" to="0_2" fromLane="0" toLane="2" dir="l" state="M"/>
    <connection from=":0_4" to="0_4" fromLane="0" toLane="0" dir="r" state="M"/>
    <connection from=":0_5" to="0_1" fromLane="0" toLane="0" dir="s" state="M"/>
    <connection from=":0_5" to="0_1" fromLane="1" toLane="1" dir="s" state="M"/>
    <connection from=":0_7" to="0_3" fromLane="0" toLane="2" dir="l" state="M"/>
    <connection from=":0_8" to="0_2" fromLane="0" toLane="0" dir="r" state="M"/>
    <connection from=":0_9" to="0_4" fromLane="0" toLane="0" dir="s" state="M"/>
    <connection from=":0_9" to="0_4" fromLane="1" toLane="1" dir="s" state="M"/>
    <connection from=":0_11" to="0_1" fromLane="0" toLane="2" dir="l" state="M"/>
    <connection from=":0_12" to="0_3" fromLane="0" toLane="0" dir="r" state="M"/>
    <connection from=":0_13" to="0_2" fromLane="0" toLane="0" dir="s" state="M"/>
    <connection from=":0_13" to="0_2" fromLane="1" toLane="1" dir="s" state="M"/>
    <connection from=":0_15" to="0_4" fromLane="0" toLane="2" dir="l" state="M"/>

</net>
